examples/13NodeIEEE/OpenDSS files/IEEE13Nodeckt_Power_seq_kVA.txt

SYMMETRICAL COMPONENT POWERS BY CIRCUIT ELEMENT (first 3 phases)                                     Excess Power

Element            Term    P1(kW)   Q1(kvar)       P2         Q2      P0      Q0       P_Norm      Q_Norm     P_Emerg    Q_Emerg

"Vsource.SOURCE"    1    -3527.5    -2439.1        0.0        0.0     0.0     0.0
"Vsource.SOURCE"    2        0.0        0.0        0.0        0.0     0.0     0.0
"Transformer.XFM1"  1        0.0        0.0       -0.0        0.0     0.0     0.0        0.0        0.0        0.0        0.0
"Transformer.XFM1"  2        0.0        0.0       -0.0       -0.0    -0.0    -0.0
"Line.650632"       1     3527.5     2439.1       -0.0       -0.0    -0.0    -0.0     1352.4      935.1      264.9      183.2
"Line.650632"       2    -3463.4    -2220.1        3.6        4.6     4.3     7.8
"Line.632670"       1     2664.3     1670.8       -7.9       -4.4    -6.6   -10.5      645.9      403.6        0.0        0.0
"Line.632670"       2    -2652.7    -1628.4        9.8        7.1     9.0    15.6
"Line.670671"       1     2450.9     1512.3      -10.6       -5.6    -6.3   -17.1      563.8      345.1        0.0        0.0
"Line.670671"       2    -2431.2    -1439.9       14.2       10.5    11.1    27.8
"Line.671680"       1        0.0       -0.0        0.0       -0.0    -0.0    -0.0        0.0        0.0        0.0        0.0
"Line.671680"       2        0.0       -0.0       -0.0       -0.0     0.0    -0.0
"Line.632633"       1      401.0      291.7       -0.5        0.2     0.3    -0.9        0.0        0.0        0.0        0.0
"Line.632633"       2     -400.2     -290.7        0.5       -0.2    -0.3     0.9
"Line.632645"       1        0.0        0.0        0.0        0.0     0.0     0.0        0.0        0.0        0.0        0.0
"Line.632645"       2        0.0        0.0        0.0        0.0     0.0     0.0
"Line.645646"       1        0.0        0.0        0.0        0.0     0.0     0.0        0.0        0.0        0.0        0.0
"Line.645646"       2        0.0        0.0        0.0        0.0     0.0     0.0
"Line.692675"       1      848.0      477.9       -7.8       -1.5    -6.8   -21.9        0.0        0.0        0.0        0.0
"Line.692675"       2     -845.4     -475.8        8.2        1.8     8.5    22.5
"Line.671684"       1        0.0        0.0        0.0        0.0     0.0     0.0        0.0        0.0        0.0        0.0
"Line.671684"       2        0.0        0.0        0.0        0.0     0.0     0.0
"Line.684611"       1        0.0        0.0        0.0        0.0     0.0     0.0        0.0        0.0        0.0        0.0
"Line.684611"       2        0.0        0.0        0.0        0.0     0.0     0.0
"Line.684652"       1        0.0        0.0        0.0        0.0     0.0     0.0        0.0        0.0        0.0        0.0
"Line.684652"       2        0.0        0.0        0.0        0.0     0.0     0.0
"Line.671692"       1     1013.4      627.0      -10.9       -5.9    -6.7   -21.7        0.0        0.0        0.0        0.0
"Line.671692"       2    -1013.3     -626.5       10.9        6.0     6.8    21.9
"Load.671"          1     1139.0      653.1       -0.6       -1.0     0.4    -1.4
"Load.633A"         1        0.0        0.0        0.0        0.0     0.0     0.0
"Load.633B"         1        0.0        0.0        0.0        0.0     0.0     0.0
"Load.633C"         1        0.0        0.0        0.0        0.0     0.0     0.0
"Load.645"          1        0.0        0.0        0.0        0.0     0.0     0.0
"Load.646"          1        0.0        0.0        0.0        0.0     0.0     0.0
"Load.692"          1        0.0        0.0        0.0        0.0     0.0     0.0
"Load.675A"         1        0.0        0.0        0.0        0.0     0.0     0.0
"Load.675B"         1        0.0        0.0        0.0        0.0     0.0     0.0
"Load.675C"         1        0.0        0.0        0.0        0.0     0.0     0.0
"Load.611"          1        0.0        0.0        0.0        0.0     0.0     0.0
"Load.652"          1        0.0        0.0        0.0        0.0     0.0     0.0
"Load.670A"         1        0.0        0.0        0.0        0.0     0.0     0.0
"Load.670B"         1        0.0        0.0        0.0        0.0     0.0     0.0
"Load.670C"         1        0.0        0.0        0.0        0.0     0.0     0.0
"Load.650"          1        0.0        0.0        0.0        0.0     0.0     0.0
"Load.632"          1        0.0        0.0        0.0        0.0     0.0     0.0
"Load.680"          1        0.0        0.0        0.0        0.0     0.0     0.0
"Load.684"          1        0.0        0.0        0.0        0.0     0.0     0.0

Total Circuit Losses =  126.8 +j  378.6
